*HEADING
** Acoustic Transmission Loss Simulation
** Layered fluid medium with frequency sweep analysis
** Units: m-kg-s-Pa (SI system)
** Frequency range: 100-5000 Hz
** Author: Abaqus Acoustic Simulation
** Date: 2024

*NODE
** Source region nodes (x=0, inlet)
1, 0.0, 0.0
2, 0.0, 0.5
3, 0.0, 1.0
4, 0.0, 1.5
5, 0.0, 2.0

** Intermediate nodes (x=1.0, middle)
6, 1.0, 0.0
7, 1.0, 0.5
8, 1.0, 1.0
9, 1.0, 1.5
10, 1.0, 2.0

** Probe IN nodes (x=2.0)
11, 2.0, 0.0
12, 2.0, 0.5
13, 2.0, 1.0
14, 2.0, 1.5
15, 2.0, 2.0

** Probe OUT nodes (x=8.0)
16, 8.0, 0.0
17, 8.0, 0.5
18, 8.0, 1.0
19, 8.0, 1.5
20, 8.0, 2.0

** Outlet nodes (x=10.0)
21, 10.0, 0.0
22, 10.0, 0.5
23, 10.0, 1.0
24, 10.0, 1.5
25, 10.0, 2.0

** Additional nodes for refined mesh
26, 0.5, 0.0
27, 0.5, 0.5
28, 0.5, 1.0
29, 0.5, 1.5
30, 0.5, 2.0

31, 1.5, 0.0
32, 1.5, 0.5
33, 1.5, 1.0
34, 1.5, 1.5
35, 1.5, 2.0

36, 3.0, 0.0
37, 3.0, 0.5
38, 3.0, 1.0
39, 3.0, 1.5
40, 3.0, 2.0

41, 5.0, 0.0
42, 5.0, 0.5
43, 5.0, 1.0
44, 5.0, 1.5
45, 5.0, 2.0

46, 7.0, 0.0
47, 7.0, 0.5
48, 7.0, 1.0
49, 7.0, 1.5
50, 7.0, 2.0

51, 9.0, 0.0
52, 9.0, 0.5
53, 9.0, 1.0
54, 9.0, 1.5
55, 9.0, 2.0

*ELEMENT, TYPE=AC2D4
** Top layer elements (z=1.0 to 2.0, density=1025 kg/m³, bulk modulus=2.306e9 Pa)
1, 1, 6, 7, 2
2, 2, 7, 8, 3
3, 3, 8, 9, 4
4, 4, 9, 10, 5
5, 6, 11, 12, 7
6, 7, 12, 13, 8
7, 8, 13, 14, 9
8, 9, 14, 15, 10
9, 11, 16, 17, 12
10, 12, 17, 18, 13
11, 13, 18, 19, 14
12, 14, 19, 20, 15
13, 16, 21, 22, 17
14, 17, 22, 23, 18
15, 18, 23, 24, 19
16, 19, 24, 25, 20

** Bottom layer elements (z=0.0 to 1.0, density=980 kg/m³, bulk modulus=2.162e9 Pa)
17, 26, 31, 32, 27
18, 27, 32, 33, 28
19, 28, 33, 34, 29
20, 29, 34, 35, 30
21, 31, 36, 37, 32
22, 32, 37, 38, 33
23, 33, 38, 39, 34
24, 34, 39, 40, 35
25, 36, 41, 42, 37
26, 37, 42, 43, 38
27, 38, 43, 44, 39
28, 39, 44, 45, 40
29, 41, 46, 47, 42
30, 42, 47, 48, 43
31, 43, 48, 49, 44
32, 44, 49, 50, 45
33, 46, 51, 52, 47
34, 47, 52, 53, 48
35, 48, 53, 54, 49
36, 49, 54, 55, 50
** ... 4 like lines cut

** Additional elements for refined mesh
41, 1, 26, 27, 2
42, 2, 27, 28, 3
43, 3, 28, 29, 4
44, 4, 29, 30, 5
45, 6, 26, 27, 7
46, 7, 27, 28, 8
47, 8, 28, 29, 9
48, 9, 29, 30, 10
49, 11, 31, 32, 12
50, 12, 32, 33, 13
51, 13, 33, 34, 14
52, 14, 34, 35, 15
53, 16, 36, 37, 17
54, 17, 37, 38, 18
55, 18, 38, 39, 19
56, 19, 39, 40, 20
57, 21, 41, 42, 22
58, 22, 42, 43, 23
59, 23, 43, 44, 24
60, 24, 44, 45, 25

*NSET, NSET=INLET
1, 2, 3, 4, 5

*NSET, NSET=OUTLET
21, 22, 23, 24, 25

*NSET, NSET=PROBE_IN
11, 12, 13, 14, 15

*NSET, NSET=PROBE_OUT
16, 17, 18, 19, 20

*NSET, NSET=TOP_LAYER
1, 2, 3, 4, 5, 6, 7, 8, 9, 10, 11, 12, 13, 14, 15, 16, 17, 18, 19, 20, 21, 22, 23, 24, 25

*NSET, NSET=BOTTOM_LAYER
26, 27, 28, 29, 30, 31, 32, 33, 34, 35, 36, 37, 38, 39, 40, 41, 42, 43, 44, 45, 46, 47, 48, 49, 50, 51, 52, 53, 54, 55

*ELSET, ELSET=TOP_ELEMENTS
1, 2, 3, 4, 5, 6, 7, 8, 9, 10, 11, 12, 13, 14, 15, 16, 41, 42, 43, 44, 45, 46, 47, 48, 49, 50, 51, 52, 53, 54, 55, 56, 57, 58, 59, 60

*ELSET, ELSET=BOTTOM_ELEMENTS
17, 18, 19, 20, 21, 22, 23, 24, 25, 26, 27, 28, 29, 30, 31, 32, 33, 34, 35, 36, 37, 38, 39, 40

*MATERIAL, NAME=WATER_TOP
*DENSITY
1025.0
*BULK MODULUS
2.306e9

*MATERIAL, NAME=WATER_BOTTOM
*DENSITY
980.0
*BULK MODULUS
2.162e9

*SOLID SECTION, ELSET=TOP_ELEMENTS, MATERIAL=WATER_TOP
1.0

*SOLID SECTION, ELSET=BOTTOM_ELEMENTS, MATERIAL=WATER_BOTTOM
1.0

*SURFACE, NAME=SURF_INLET
INLET, S1

*SURFACE, NAME=SURF_OUTLET
OUTLET, S1

*STEP, NAME=SSD, NLGEOM=NO
*STEADY STATE DYNAMICS, DIRECT
100.0, 5000.0, 25.0

** Incident wave interaction property
*INCIDENT WAVE INTERACTION PROPERTY, NAME=PLANEWAVE
*INCIDENT WAVE FLUID PROPERTY
1025.0, 1500.0

** Incident wave interaction
*INCIDENT WAVE INTERACTION, NAME=INC1, PROPERTY=PLANEWAVE
SURF_INLET, 1.0, 0.0, 0.0

** Non-reflecting impedance boundaries
*IMPEDANCE, TYPE=NONREFLECTING
SURF_OUTLET

** Field output requests
*OUTPUT, FIELD, FREQUENCY=1
*NODE OUTPUT
P

** History output requests
*OUTPUT, HISTORY, FREQUENCY=1
*NODE PRINT, NSET=PROBE_IN
P
*NODE PRINT, NSET=PROBE_OUT
P

*END STEP